# OC package for  MODFLOW-2005, generated by Flopy.
HEAD PRINT FORMAT   0
HEAD SAVE UNIT    51
DRAWDOWN PRINT FORMAT   0
COMPACT BUDGET AUX

period 1 step 1 
print head
save head

period 1 step 2 
print head
save head

period 1 step 3 
print head
save head

period 1 step 4 
print head
save head

period 1 step 5 
print head
save head

period 1 step 6 
print head
save head

period 1 step 7 
print head
save head

period 1 step 8 
print head
save head

period 1 step 9 
print head
save head

period 1 step 10 
print head
save head

period 1 step 11 
print head
save head

period 1 step 12 
print head
save head

period 1 step 13 
print head
save head

period 1 step 14 
print head
save head

period 1 step 15 
print head
save head

period 1 step 16 
print head
save head

period 1 step 17 
print head
save head

period 1 step 18 
print head
save head

period 1 step 19 
print head
save head

period 1 step 20 
print head
save head

period 1 step 21 
print head
save head

period 1 step 22 
print head
save head

period 1 step 23 
print head
save head

period 1 step 24 
print head
save head

period 1 step 25 
print head
save head

period 1 step 26 
print head
save head

period 1 step 27 
print head
save head

period 1 step 28 
print head
save head

period 1 step 29 
print head
save head

period 1 step 30 
print head
save head

period 1 step 31 
print head
save head

period 1 step 32 
print head
save head

period 1 step 33 
print head
save head

period 1 step 34 
print head
save head

period 1 step 35 
print head
save head

period 1 step 36 
print head
save head

period 1 step 37 
print head
save head

period 1 step 38 
print head
save head

period 1 step 39 
print head
save head

period 1 step 40 
print head
save head

period 1 step 41 
print head
save head

period 1 step 42 
print head
save head

period 1 step 43 
print head
save head

period 1 step 44 
print head
save head

period 1 step 45 
print head
save head

period 1 step 46 
print head
save head

period 1 step 47 
print head
save head

period 1 step 48 
print head
save head

period 1 step 49 
print head
save head

period 1 step 50 
print head
save head

period 1 step 51 
print head
save head

period 1 step 52 
print head
save head

period 1 step 53 
print head
save head

period 1 step 54 
print head
save head

period 1 step 55 
print head
save head

period 1 step 56 
print head
save head

period 1 step 57 
print head
save head

period 1 step 58 
print head
save head

period 1 step 59 
print head
save head

period 1 step 60 
print head
save head

period 1 step 61 
print head
save head

period 1 step 62 
print head
save head

period 1 step 63 
print head
save head

period 1 step 64 
print head
save head

period 1 step 65 
print head
save head

period 1 step 66 
print head
save head

period 1 step 67 
print head
save head

period 1 step 68 
print head
save head

period 1 step 69 
print head
save head

period 1 step 70 
print head
save head

period 1 step 71 
print head
save head

period 1 step 72 
print head
save head

period 1 step 73 
print head
save head

period 1 step 74 
print head
save head

period 1 step 75 
print head
save head

period 1 step 76 
print head
save head

period 1 step 77 
print head
save head

period 1 step 78 
print head
save head

period 1 step 79 
print head
save head

period 1 step 80 
print head
save head

period 1 step 81 
print head
save head

period 1 step 82 
print head
save head

period 1 step 83 
print head
save head

period 1 step 84 
print head
save head

period 1 step 85 
print head
save head

period 1 step 86 
print head
save head

period 1 step 87 
print head
save head

period 1 step 88 
print head
save head

period 1 step 89 
print head
save head

period 1 step 90 
print head
save head

period 1 step 91 
print head
save head

period 1 step 92 
print head
save head

period 1 step 93 
print head
save head

period 1 step 94 
print head
save head

period 1 step 95 
print head
save head

period 1 step 96 
print head
save head

period 1 step 97 
print head
save head

period 1 step 98 
print head
save head

period 1 step 99 
print head
save head

period 1 step 100 
print head
save head

period 1 step 101 
print head
save head

period 1 step 102 
print head
save head

period 1 step 103 
print head
save head

period 1 step 104 
print head
save head

period 1 step 105 
print head
save head

period 1 step 106 
print head
save head

period 1 step 107 
print head
save head

period 1 step 108 
print head
save head

period 1 step 109 
print head
save head

period 1 step 110 
print head
save head

period 1 step 111 
print head
save head

period 1 step 112 
print head
save head

period 1 step 113 
print head
save head

period 1 step 114 
print head
save head

period 1 step 115 
print head
save head

period 1 step 116 
print head
save head

period 1 step 117 
print head
save head

period 1 step 118 
print head
save head

period 1 step 119 
print head
save head

period 1 step 120 
print head
save head

period 1 step 121 
print head
save head

period 1 step 122 
print head
save head

period 1 step 123 
print head
save head

period 1 step 124 
print head
save head

period 1 step 125 
print head
save head

period 1 step 126 
print head
save head

period 1 step 127 
print head
save head

period 1 step 128 
print head
save head

period 1 step 129 
print head
save head

period 1 step 130 
print head
save head

period 1 step 131 
print head
save head

period 1 step 132 
print head
save head

period 1 step 133 
print head
save head

period 1 step 134 
print head
save head

period 1 step 135 
print head
save head

period 1 step 136 
print head
save head

period 1 step 137 
print head
save head

period 1 step 138 
print head
save head

period 1 step 139 
print head
save head

period 1 step 140 
print head
save head

period 1 step 141 
print head
save head

period 1 step 142 
print head
save head

period 1 step 143 
print head
save head

period 1 step 144 
print head
save head

period 1 step 145 
print head
save head

period 1 step 146 
print head
save head

period 1 step 147 
print head
save head

period 1 step 148 
print head
save head

period 1 step 149 
print head
save head

period 1 step 150 
print head
save head

period 1 step 151 
print head
save head

period 1 step 152 
print head
save head

period 1 step 153 
print head
save head

period 1 step 154 
print head
save head

period 1 step 155 
print head
save head

period 1 step 156 
print head
save head

period 1 step 157 
print head
save head

period 1 step 158 
print head
save head

period 1 step 159 
print head
save head

period 1 step 160 
print head
save head

period 1 step 161 
print head
save head

period 1 step 162 
print head
save head

period 1 step 163 
print head
save head

period 1 step 164 
print head
save head

period 1 step 165 
print head
save head

period 1 step 166 
print head
save head

period 1 step 167 
print head
save head

period 1 step 168 
print head
save head

period 1 step 169 
print head
save head

period 1 step 170 
print head
save head

period 1 step 171 
print head
save head

period 1 step 172 
print head
save head

period 1 step 173 
print head
save head

period 1 step 174 
print head
save head

period 1 step 175 
print head
save head

period 1 step 176 
print head
save head

period 1 step 177 
print head
save head

period 1 step 178 
print head
save head

period 1 step 179 
print head
save head

period 1 step 180 
print head
save head

period 1 step 181 
print head
save head

period 1 step 182 
print head
save head

period 1 step 183 
print head
save head

period 1 step 184 
print head
save head

period 1 step 185 
print head
save head

period 1 step 186 
print head
save head

period 1 step 187 
print head
save head

period 1 step 188 
print head
save head

period 1 step 189 
print head
save head

period 1 step 190 
print head
save head

period 1 step 191 
print head
save head

period 1 step 192 
print head
save head

period 1 step 193 
print head
save head

period 1 step 194 
print head
save head

period 1 step 195 
print head
save head

period 1 step 196 
print head
save head

period 1 step 197 
print head
save head

period 1 step 198 
print head
save head

period 1 step 199 
print head
save head

period 1 step 200 
print head
save head

period 1 step 201 
print head
save head

period 1 step 202 
print head
save head

period 1 step 203 
print head
save head

period 1 step 204 
print head
save head

period 1 step 205 
print head
save head

period 1 step 206 
print head
save head

period 1 step 207 
print head
save head

period 1 step 208 
print head
save head

period 1 step 209 
print head
save head

period 1 step 210 
print head
save head

period 1 step 211 
print head
save head

period 1 step 212 
print head
save head

period 1 step 213 
print head
save head

period 1 step 214 
print head
save head

period 1 step 215 
print head
save head

period 1 step 216 
print head
save head

period 1 step 217 
print head
save head

period 1 step 218 
print head
save head

period 1 step 219 
print head
save head

period 1 step 220 
print head
save head

period 1 step 221 
print head
save head

period 1 step 222 
print head
save head

period 1 step 223 
print head
save head

period 1 step 224 
print head
save head

period 1 step 225 
print head
save head

period 1 step 226 
print head
save head

period 1 step 227 
print head
save head

period 1 step 228 
print head
save head

period 1 step 229 
print head
save head

period 1 step 230 
print head
save head

period 1 step 231 
print head
save head

period 1 step 232 
print head
save head

period 1 step 233 
print head
save head

period 1 step 234 
print head
save head

period 1 step 235 
print head
save head

period 1 step 236 
print head
save head

period 1 step 237 
print head
save head

period 1 step 238 
print head
save head

period 1 step 239 
print head
save head

period 1 step 240 
print head
save head

period 1 step 241 
print head
save head

period 1 step 242 
print head
save head

period 1 step 243 
print head
save head

period 1 step 244 
print head
save head

period 1 step 245 
print head
save head

period 1 step 246 
print head
save head

period 1 step 247 
print head
save head

period 1 step 248 
print head
save head

period 1 step 249 
print head
save head

period 1 step 250 
print head
save head

period 1 step 251 
print head
save head

period 1 step 252 
print head
save head

period 1 step 253 
print head
save head

period 1 step 254 
print head
save head

period 1 step 255 
print head
save head

period 1 step 256 
print head
save head

period 1 step 257 
print head
save head

period 1 step 258 
print head
save head

period 1 step 259 
print head
save head

period 1 step 260 
print head
save head

period 1 step 261 
print head
save head

period 1 step 262 
print head
save head

period 1 step 263 
print head
save head

period 1 step 264 
print head
save head

period 1 step 265 
print head
save head

period 1 step 266 
print head
save head

period 1 step 267 
print head
save head

period 1 step 268 
print head
save head

period 1 step 269 
print head
save head

period 1 step 270 
print head
save head

period 1 step 271 
print head
save head

period 1 step 272 
print head
save head

period 1 step 273 
print head
save head

period 1 step 274 
print head
save head

period 1 step 275 
print head
save head

period 1 step 276 
print head
save head

period 1 step 277 
print head
save head

period 1 step 278 
print head
save head

period 1 step 279 
print head
save head

period 1 step 280 
print head
save head

period 1 step 281 
print head
save head

period 1 step 282 
print head
save head

period 1 step 283 
print head
save head

period 1 step 284 
print head
save head

period 1 step 285 
print head
save head

period 1 step 286 
print head
save head

period 1 step 287 
print head
save head

period 1 step 288 
print head
save head

period 1 step 289 
print head
save head

period 1 step 290 
print head
save head

period 1 step 291 
print head
save head

period 1 step 292 
print head
save head

period 1 step 293 
print head
save head

period 1 step 294 
print head
save head

period 1 step 295 
print head
save head

period 1 step 296 
print head
save head

period 1 step 297 
print head
save head

period 1 step 298 
print head
save head

period 1 step 299 
print head
save head

period 1 step 300 
print head
save head

period 1 step 301 
print head
save head

period 1 step 302 
print head
save head

period 1 step 303 
print head
save head

period 1 step 304 
print head
save head

period 1 step 305 
print head
save head

period 1 step 306 
print head
save head

period 1 step 307 
print head
save head

period 1 step 308 
print head
save head

period 1 step 309 
print head
save head

period 1 step 310 
print head
save head

period 1 step 311 
print head
save head

period 1 step 312 
print head
save head

period 1 step 313 
print head
save head

period 1 step 314 
print head
save head

period 1 step 315 
print head
save head

period 1 step 316 
print head
save head

period 1 step 317 
print head
save head

period 1 step 318 
print head
save head

period 1 step 319 
print head
save head

period 1 step 320 
print head
save head

period 1 step 321 
print head
save head

period 1 step 322 
print head
save head

period 1 step 323 
print head
save head

period 1 step 324 
print head
save head

period 1 step 325 
print head
save head

period 1 step 326 
print head
save head

period 1 step 327 
print head
save head

period 1 step 328 
print head
save head

period 1 step 329 
print head
save head

period 1 step 330 
print head
save head

period 1 step 331 
print head
save head

period 1 step 332 
print head
save head

period 1 step 333 
print head
save head

period 1 step 334 
print head
save head

period 1 step 335 
print head
save head

period 1 step 336 
print head
save head

period 1 step 337 
print head
save head

period 1 step 338 
print head
save head

period 1 step 339 
print head
save head

period 1 step 340 
print head
save head

period 1 step 341 
print head
save head

period 1 step 342 
print head
save head

period 1 step 343 
print head
save head

period 1 step 344 
print head
save head

period 1 step 345 
print head
save head

period 1 step 346 
print head
save head

period 1 step 347 
print head
save head

period 1 step 348 
print head
save head

period 1 step 349 
print head
save head

period 1 step 350 
print head
save head

period 1 step 351 
print head
save head

period 1 step 352 
print head
save head

period 1 step 353 
print head
save head

period 1 step 354 
print head
save head

period 1 step 355 
print head
save head

period 1 step 356 
print head
save head

period 1 step 357 
print head
save head

period 1 step 358 
print head
save head

period 1 step 359 
print head
save head

period 1 step 360 
print head
save head

period 1 step 361 
print head
save head

period 1 step 362 
print head
save head

period 1 step 363 
print head
save head

period 1 step 364 
print head
save head

period 1 step 365 
print head
save head

period 2 step 1 
print head
save head

period 2 step 2 
print head
save head

period 2 step 3 
print head
save head

period 2 step 4 
print head
save head

period 2 step 5 
print head
save head

period 2 step 6 
print head
save head

period 2 step 7 
print head
save head

period 2 step 8 
print head
save head

period 2 step 9 
print head
save head

period 2 step 10 
print head
save head

period 2 step 11 
print head
save head

period 2 step 12 
print head
save head

period 2 step 13 
print head
save head

period 2 step 14 
print head
save head

period 2 step 15 
print head
save head

period 2 step 16 
print head
save head

period 2 step 17 
print head
save head

period 2 step 18 
print head
save head

period 2 step 19 
print head
save head

period 2 step 20 
print head
save head

period 2 step 21 
print head
save head

period 2 step 22 
print head
save head

period 2 step 23 
print head
save head

period 2 step 24 
print head
save head

period 2 step 25 
print head
save head

period 2 step 26 
print head
save head

period 2 step 27 
print head
save head

period 2 step 28 
print head
save head

period 2 step 29 
print head
save head

period 2 step 30 
print head
save head

period 2 step 31 
print head
save head

period 2 step 32 
print head
save head

period 2 step 33 
print head
save head

period 2 step 34 
print head
save head

period 2 step 35 
print head
save head

period 2 step 36 
print head
save head

period 2 step 37 
print head
save head

period 2 step 38 
print head
save head

period 2 step 39 
print head
save head

period 2 step 40 
print head
save head

period 2 step 41 
print head
save head

period 2 step 42 
print head
save head

period 2 step 43 
print head
save head

period 2 step 44 
print head
save head

period 2 step 45 
print head
save head

period 2 step 46 
print head
save head

period 2 step 47 
print head
save head

period 2 step 48 
print head
save head

period 2 step 49 
print head
save head

period 2 step 50 
print head
save head

period 2 step 51 
print head
save head

period 2 step 52 
print head
save head

period 2 step 53 
print head
save head

period 2 step 54 
print head
save head

period 2 step 55 
print head
save head

period 2 step 56 
print head
save head

period 2 step 57 
print head
save head

period 2 step 58 
print head
save head

period 2 step 59 
print head
save head

period 2 step 60 
print head
save head

period 2 step 61 
print head
save head

period 2 step 62 
print head
save head

period 2 step 63 
print head
save head

period 2 step 64 
print head
save head

period 2 step 65 
print head
save head

period 2 step 66 
print head
save head

period 2 step 67 
print head
save head

period 2 step 68 
print head
save head

period 2 step 69 
print head
save head

period 2 step 70 
print head
save head

period 2 step 71 
print head
save head

period 2 step 72 
print head
save head

period 2 step 73 
print head
save head

period 2 step 74 
print head
save head

period 2 step 75 
print head
save head

period 2 step 76 
print head
save head

period 2 step 77 
print head
save head

period 2 step 78 
print head
save head

period 2 step 79 
print head
save head

period 2 step 80 
print head
save head

period 2 step 81 
print head
save head

period 2 step 82 
print head
save head

period 2 step 83 
print head
save head

period 2 step 84 
print head
save head

period 2 step 85 
print head
save head

period 2 step 86 
print head
save head

period 2 step 87 
print head
save head

period 2 step 88 
print head
save head

period 2 step 89 
print head
save head

period 2 step 90 
print head
save head

period 2 step 91 
print head
save head

period 2 step 92 
print head
save head

period 2 step 93 
print head
save head

period 2 step 94 
print head
save head

period 2 step 95 
print head
save head

period 2 step 96 
print head
save head

period 2 step 97 
print head
save head

period 2 step 98 
print head
save head

period 2 step 99 
print head
save head

period 2 step 100 
print head
save head

period 2 step 101 
print head
save head

period 2 step 102 
print head
save head

period 2 step 103 
print head
save head

period 2 step 104 
print head
save head

period 2 step 105 
print head
save head

period 2 step 106 
print head
save head

period 2 step 107 
print head
save head

period 2 step 108 
print head
save head

period 2 step 109 
print head
save head

period 2 step 110 
print head
save head

period 2 step 111 
print head
save head

period 2 step 112 
print head
save head

period 2 step 113 
print head
save head

period 2 step 114 
print head
save head

period 2 step 115 
print head
save head

period 2 step 116 
print head
save head

period 2 step 117 
print head
save head

period 2 step 118 
print head
save head

period 2 step 119 
print head
save head

period 2 step 120 
print head
save head

period 2 step 121 
print head
save head

period 2 step 122 
print head
save head

period 2 step 123 
print head
save head

period 2 step 124 
print head
save head

period 2 step 125 
print head
save head

period 2 step 126 
print head
save head

period 2 step 127 
print head
save head

period 2 step 128 
print head
save head

period 2 step 129 
print head
save head

period 2 step 130 
print head
save head

period 2 step 131 
print head
save head

period 2 step 132 
print head
save head

period 2 step 133 
print head
save head

period 2 step 134 
print head
save head

period 2 step 135 
print head
save head

period 2 step 136 
print head
save head

period 2 step 137 
print head
save head

period 2 step 138 
print head
save head

period 2 step 139 
print head
save head

period 2 step 140 
print head
save head

period 2 step 141 
print head
save head

period 2 step 142 
print head
save head

period 2 step 143 
print head
save head

period 2 step 144 
print head
save head

period 2 step 145 
print head
save head

period 2 step 146 
print head
save head

period 2 step 147 
print head
save head

period 2 step 148 
print head
save head

period 2 step 149 
print head
save head

period 2 step 150 
print head
save head

period 2 step 151 
print head
save head

period 2 step 152 
print head
save head

period 2 step 153 
print head
save head

period 2 step 154 
print head
save head

period 2 step 155 
print head
save head

period 2 step 156 
print head
save head

period 2 step 157 
print head
save head

period 2 step 158 
print head
save head

period 2 step 159 
print head
save head

period 2 step 160 
print head
save head

period 2 step 161 
print head
save head

period 2 step 162 
print head
save head

period 2 step 163 
print head
save head

period 2 step 164 
print head
save head

period 2 step 165 
print head
save head

period 2 step 166 
print head
save head

period 2 step 167 
print head
save head

period 2 step 168 
print head
save head

period 2 step 169 
print head
save head

period 2 step 170 
print head
save head

period 2 step 171 
print head
save head

period 2 step 172 
print head
save head

period 2 step 173 
print head
save head

period 2 step 174 
print head
save head

period 2 step 175 
print head
save head

period 2 step 176 
print head
save head

period 2 step 177 
print head
save head

period 2 step 178 
print head
save head

period 2 step 179 
print head
save head

period 2 step 180 
print head
save head

period 2 step 181 
print head
save head

period 2 step 182 
print head
save head

period 2 step 183 
print head
save head

period 2 step 184 
print head
save head

period 2 step 185 
print head
save head

period 2 step 186 
print head
save head

period 2 step 187 
print head
save head

period 2 step 188 
print head
save head

period 2 step 189 
print head
save head

period 2 step 190 
print head
save head

period 2 step 191 
print head
save head

period 2 step 192 
print head
save head

period 2 step 193 
print head
save head

period 2 step 194 
print head
save head

period 2 step 195 
print head
save head

period 2 step 196 
print head
save head

period 2 step 197 
print head
save head

period 2 step 198 
print head
save head

period 2 step 199 
print head
save head

period 2 step 200 
print head
save head

period 2 step 201 
print head
save head

period 2 step 202 
print head
save head

period 2 step 203 
print head
save head

period 2 step 204 
print head
save head

period 2 step 205 
print head
save head

period 2 step 206 
print head
save head

period 2 step 207 
print head
save head

period 2 step 208 
print head
save head

period 2 step 209 
print head
save head

period 2 step 210 
print head
save head

period 2 step 211 
print head
save head

period 2 step 212 
print head
save head

period 2 step 213 
print head
save head

period 2 step 214 
print head
save head

period 2 step 215 
print head
save head

period 2 step 216 
print head
save head

period 2 step 217 
print head
save head

period 2 step 218 
print head
save head

period 2 step 219 
print head
save head

period 2 step 220 
print head
save head

period 2 step 221 
print head
save head

period 2 step 222 
print head
save head

period 2 step 223 
print head
save head

period 2 step 224 
print head
save head

period 2 step 225 
print head
save head

period 2 step 226 
print head
save head

period 2 step 227 
print head
save head

period 2 step 228 
print head
save head

period 2 step 229 
print head
save head

period 2 step 230 
print head
save head

period 2 step 231 
print head
save head

period 2 step 232 
print head
save head

period 2 step 233 
print head
save head

period 2 step 234 
print head
save head

period 2 step 235 
print head
save head

period 2 step 236 
print head
save head

period 2 step 237 
print head
save head

period 2 step 238 
print head
save head

period 2 step 239 
print head
save head

period 2 step 240 
print head
save head

period 2 step 241 
print head
save head

period 2 step 242 
print head
save head

period 2 step 243 
print head
save head

period 2 step 244 
print head
save head

period 2 step 245 
print head
save head

period 2 step 246 
print head
save head

period 2 step 247 
print head
save head

period 2 step 248 
print head
save head

period 2 step 249 
print head
save head

period 2 step 250 
print head
save head

period 2 step 251 
print head
save head

period 2 step 252 
print head
save head

period 2 step 253 
print head
save head

period 2 step 254 
print head
save head

period 2 step 255 
print head
save head

period 2 step 256 
print head
save head

period 2 step 257 
print head
save head

period 2 step 258 
print head
save head

period 2 step 259 
print head
save head

period 2 step 260 
print head
save head

period 2 step 261 
print head
save head

period 2 step 262 
print head
save head

period 2 step 263 
print head
save head

period 2 step 264 
print head
save head

period 2 step 265 
print head
save head

period 2 step 266 
print head
save head

period 2 step 267 
print head
save head

period 2 step 268 
print head
save head

period 2 step 269 
print head
save head

period 2 step 270 
print head
save head

period 2 step 271 
print head
save head

period 2 step 272 
print head
save head

period 2 step 273 
print head
save head

period 2 step 274 
print head
save head

period 2 step 275 
print head
save head

period 2 step 276 
print head
save head

period 2 step 277 
print head
save head

period 2 step 278 
print head
save head

period 2 step 279 
print head
save head

period 2 step 280 
print head
save head

period 2 step 281 
print head
save head

period 2 step 282 
print head
save head

period 2 step 283 
print head
save head

period 2 step 284 
print head
save head

period 2 step 285 
print head
save head

period 2 step 286 
print head
save head

period 2 step 287 
print head
save head

period 2 step 288 
print head
save head

period 2 step 289 
print head
save head

period 2 step 290 
print head
save head

period 2 step 291 
print head
save head

period 2 step 292 
print head
save head

period 2 step 293 
print head
save head

period 2 step 294 
print head
save head

period 2 step 295 
print head
save head

period 2 step 296 
print head
save head

period 2 step 297 
print head
save head

period 2 step 298 
print head
save head

period 2 step 299 
print head
save head

period 2 step 300 
print head
save head

period 2 step 301 
print head
save head

period 2 step 302 
print head
save head

period 2 step 303 
print head
save head

period 2 step 304 
print head
save head

period 2 step 305 
print head
save head

period 2 step 306 
print head
save head

period 2 step 307 
print head
save head

period 2 step 308 
print head
save head

period 2 step 309 
print head
save head

period 2 step 310 
print head
save head

period 2 step 311 
print head
save head

period 2 step 312 
print head
save head

period 2 step 313 
print head
save head

period 2 step 314 
print head
save head

period 2 step 315 
print head
save head

period 2 step 316 
print head
save head

period 2 step 317 
print head
save head

period 2 step 318 
print head
save head

period 2 step 319 
print head
save head

period 2 step 320 
print head
save head

period 2 step 321 
print head
save head

period 2 step 322 
print head
save head

period 2 step 323 
print head
save head

period 2 step 324 
print head
save head

period 2 step 325 
print head
save head

period 2 step 326 
print head
save head

period 2 step 327 
print head
save head

period 2 step 328 
print head
save head

period 2 step 329 
print head
save head

period 2 step 330 
print head
save head

period 2 step 331 
print head
save head

period 2 step 332 
print head
save head

period 2 step 333 
print head
save head

period 2 step 334 
print head
save head

period 2 step 335 
print head
save head

period 2 step 336 
print head
save head

period 2 step 337 
print head
save head

period 2 step 338 
print head
save head

period 2 step 339 
print head
save head

period 2 step 340 
print head
save head

period 2 step 341 
print head
save head

period 2 step 342 
print head
save head

period 2 step 343 
print head
save head

period 2 step 344 
print head
save head

period 2 step 345 
print head
save head

period 2 step 346 
print head
save head

period 2 step 347 
print head
save head

period 2 step 348 
print head
save head

period 2 step 349 
print head
save head

period 2 step 350 
print head
save head

period 2 step 351 
print head
save head

period 2 step 352 
print head
save head

period 2 step 353 
print head
save head

period 2 step 354 
print head
save head

period 2 step 355 
print head
save head

period 2 step 356 
print head
save head

period 2 step 357 
print head
save head

period 2 step 358 
print head
save head

period 2 step 359 
print head
save head

period 2 step 360 
print head
save head

period 2 step 361 
print head
save head

period 2 step 362 
print head
save head

period 2 step 363 
print head
save head

period 2 step 364 
print head
save head

period 2 step 365 
print head
save head

period 3 step 1 
print head
save head

period 3 step 2 
print head
save head

period 3 step 3 
print head
save head

period 3 step 4 
print head