# LPF package for  MODFLOW-2005, generated by Flopy.
         0         0         0  
         1
         0
   1.000000E+00
         0
         0
CONSTANT    1.248905E+00                           #hk layer 1                    
CONSTANT    1.248905E-01                           #vka layer 1                   
CONSTANT    4.000000E-06                           #ss layer 1                    
CONSTANT    1.683373E-01                           #sy layer 1                    
