# Name file for MODFLOW-2005, generated by Flopy version 3.2.6.
#xul:0; yul:422500; rotation:0; proj4_str:+init=EPSG:4326; units:meters; lenuni:2; length_multiplier:1.0 ;start_datetime:1-1-1970
LIST               2  mod.list
DIS               11  mod.dis 
BAS6              13  mod.bas 
PCG               27  mod.pcg 
RCH               19  mod.rch 
WEL               20  mod.wel 
OC                14  mod.oc 
LPF               15  mod.lpf 
DATA(BINARY)      51  mod.hds REPLACE
