# DIS package for  MODFLOW-2005, generated by Flopy.
         1       108        76        30         4         2
  0
INTERNAL               1  (76E15.6) -1 #delr                          
   1.500000E+04   1.500000E+04   1.500000E+04   1.500000E+04   1.500000E+04   1.500000E+04   1.500000E+04   1.100000E+04   1.100000E+04   0.000000E+00   8.000000E+03   6.000000E+03   4.000000E+03   4.000000E+03   4.000000E+03   3.000000E+03   3.000000E+03   2.000000E+03   1.000000E+03   1.000000E+03   1.000000E+03   1.000000E+03   1.000000E+03   1.000000E+03   1.000000E+03   1.000000E+03   1.000000E+03   1.000000E+03   1.000000E+03   1.000000E+03   1.000000E+03   1.000000E+03   1.000000E+03   1.000000E+03   1.000000E+03   1.000000E+03   1.000000E+03   1.000000E+03   1.000000E+03   1.000000E+03   1.000000E+03   1.000000E+03   1.000000E+03   1.000000E+03   1.000000E+03   1.000000E+03   1.000000E+03   1.000000E+03   1.000000E+03   1.000000E+03   1.000000E+03   1.000000E+03   1.000000E+03   1.000000E+03   1.000000E+03   1.000000E+03   1.000000E+03   1.000000E+03   1.000000E+03   1.000000E+03   1.000000E+03   1.000000E+03   1.000000E+03   1.000000E+03   1.000000E+03   2.000000E+03   2.000000E+03   3.000000E+03   5.000000E+03   8.000000E+03   1.200000E+04   1.200000E+04   1.200000E+04   1.200000E+04   1.200000E+04   0.000000E+00
INTERNAL               1 (108E15.6) -1 #delc                          
   0.000000E+00   1.800000E+04   1.800000E+04   1.800000E+04   1.800000E+04   1.800000E+04   1.600000E+04   1.600000E+04   1.600000E+04   1.300000E+04   9.000000E+03   5.000000E+03   3.000000E+03   0.000000E+00   1.500000E+03   1.500000E+03   1.500000E+03   1.500000E+03   1.500000E+03   1.500000E+03   1.500000E+03   1.500000E+03   1.500000E+03   1.500000E+03   1.500000E+03   1.500000E+03   1.500000E+03   1.500000E+03   1.500000E+03   1.500000E+03   1.500000E+03   1.500000E+03   1.500000E+03   1.500000E+03   1.500000E+03   1.500000E+03   1.500000E+03   1.500000E+03   1.500000E+03   1.500000E+03   1.500000E+03   1.500000E+03   1.500000E+03   1.500000E+03   1.500000E+03   1.500000E+03   1.500000E+03   1.500000E+03   1.500000E+03   1.000000E+03   1.000000E+03   1.000000E+03   1.000000E+03   1.000000E+03   1.000000E+03   1.000000E+03   1.000000E+03   1.000000E+03   1.000000E+03   1.000000E+03   1.000000E+03   1.000000E+03   1.000000E+03   1.000000E+03   1.000000E+03   1.000000E+03   1.000000E+03   1.000000E+03   1.000000E+03   1.000000E+03   1.000000E+03   1.000000E+03   1.000000E+03   1.000000E+03   1.000000E+03   1.000000E+03   1.000000E+03   1.000000E+03   1.000000E+03   1.000000E+03   1.000000E+03   1.000000E+03   1.000000E+03   1.000000E+03   1.000000E+03   1.000000E+03   1.000000E+03   1.000000E+03   1.000000E+03   2.000000E+03   2.000000E+03   2.000000E+03   3.000000E+03   3.000000E+03   3.000000E+03   3.000000E+03   5.000000E+03   6.000000E+03   8.000000E+03   1.000000E+04   1.000000E+04   1.500000E+04   1.500000E+04   1.500000E+04   1.500000E+04   1.500000E+04   1.500000E+04   1.500000E+04
CONSTANT    3.150000E+02                           #model_top                     
CONSTANT    0.000000E+00                           #botm layer 1                  
    365.000000           365  1.000000  TR 
    365.000000           365  1.000000  TR 
    365.000000           365  1.000000  TR 
    365.000000           365  1.000000  TR 
    365.000000           365  1.000000  TR 
    365.000000           365  1.000000  TR 
    365.000000           365  1.000000  TR 
    365.000000           365  1.000000  TR 
    365.000000           365  1.000000  TR 
    365.000000           365  1.000000  TR 
    365.000000           365  1.000000  TR 
    365.000000           365  1.000000  TR 
    365.000000           365  1.000000  TR 
    365.000000           365  1.000000  TR 
    365.000000           365  1.000000  TR 
    365.000000           365  1.000000  TR 
    365.000000           365  1.000000  TR 
    365.000000           365  1.000000  TR 
    365.000000           365  1.000000  TR 
    365.000000           365  1.000000  TR 
    365.000000           365  1.000000  TR 
    365.000000           365  1.000000  TR 
    365.000000           365  1.000000  TR 
    365.000000           365  1.000000  TR 
    365.000000           365  1.000000  TR 
    365.000000           365  1.000000  TR 
    365.000000           365  1.000000  TR 
    365.000000           365  1.000000  TR 
    365.000000           365  1.000000  TR 
    365.000000           365  1.000000  TR 
