# WEL package for  MODFLOW-2005, generated by Flopy.
       108         0
       108         0 # stress period 0
         1         5         7  -6.4931509E+03
         1         5         7  -6.4931509E+03
         1         7         8  -2.1643835E+03
         1         7         8  -2.1643835E+03
         1         8        10  -2.1643835E+03
         1        10         9  -2.1643835E+03
         1         8         5  -2.1643835E+03
         1         9         5  -2.1643835E+03
         1        10         6  -2.1643835E+03
         1        24         8  -2.1643835E+03
         1        15        12  -2.1643835E+03
         1        21        19  -5.0684932E+03
         1        23        22  -5.0684932E+03
         1        26        24  -5.0684932E+03
         1        28        25  -5.0684932E+03
         1        21        24  -5.1780820E+03
         1        22        26  -4.6575342E+03
         1        24        28  -2.1095891E+03
         1        27        28  -3.3972603E+03
         1        19        29  -4.7671230E+03
         1        21        30  -5.0684932E+03
         1        23        32  -5.1780820E+03
         1        25        34  -4.5479453E+03
         1        20        35  -4.9589043E+03
         1        23        38  -4.9589043E+03
         1        24        40  -4.3287671E+03
         1        26        41  -4.0273972E+03
         1        45        27  -3.1780823E+03
         1        47        27  -2.1095891E+03
         1        49        26  -4.2191782E+03
         1        52        26  -4.2191782E+03
         1        57        25  -3.1780823E+03
         1        31        38  -6.4931509E+03
         1        17        48  -1.0684932E+03
         1        15        48  -1.0684932E+03
         1        15        51  -1.0684932E+03
         1        18        50  -1.0684932E+03
         1        16        51  -1.0684932E+03
         1        30        52  -4.0000000E+03
         1        32        54  -4.0000000E+03
         1        30        57  -4.0000000E+03
         1        32        57  -4.0000000E+03
         1        35        58  -4.0000000E+03
         1        40        58  -4.0000000E+03
         1        42        56  -4.0000000E+03
         1        29        60  -4.0000000E+03
         1        32        61  -4.0000000E+03
         1        33        62  -4.0000000E+03
         1        35        63  -4.0000000E+03
         1        37        60  -4.0000000E+03
         1        40        62  -4.0000000E+03
         1        43        59  -4.0000000E+03
         1        45        57  -4.0000000E+03
         1        39        65  -4.0000000E+03
         1        44        64  -4.0000000E+03
         1        46        61  -4.0000000E+03
         1        66        52  -1.1890411E+04
         1        67        50  -1.1890411E+04
         1        69        48  -1.1890411E+04
         1        68        47  -1.1890411E+04
         1        65        39  -1.0794521E+04
         1        64        37  -6.4931509E+03
         1        66        33  -7.5616440E+03
         1        67        30  -6.4931509E+03
         1        66        35  -5.1780820E+03
         1        68        36  -5.7808218E+03
         1        73        38  -1.0794521E+04
         1        76        38  -8.6301367E+03
         1        79        38  -3.2328767E+03
         1        81        40  -5.3972603E+03
         1        84        42  -8.6301367E+03
         1        87        44  -5.3972603E+03
         1        90        45  -8.6301367E+03
         1        91        48  -5.3972603E+03
         1        96        55  -2.1643835E+03
         1        97        31  -1.0794521E+04
         1        96        33  -8.6301367E+03
         1        95        33  -4.4383562E+04
         1        94        35  -8.6301367E+03
         1        93        35  -8.6301367E+03
         1        92        35  -1.1890411E+04
         1        90        34  -8.6301367E+03
         1        86        35  -8.6301367E+03
         1        85        34  -1.0794521E+04
         1        82        32  -1.0794521E+04
         1        79        31  -2.1643835E+03
         1        78        28  -6.4931509E+03
         1        79        25  -6.4931509E+03
         1        81        23  -6.4931509E+03
         1        59        22  -4.3287671E+03
         1        63        25  -8.6301367E+03
         1        66        28  -4.3287671E+03
         1        69        30  -8.6301367E+03
         1        68        29  -9.7260273E+03
         1        68        29  -9.9452051E+03
         1        71        28  -4.3287671E+03
         1        74        26  -9.7260273E+03
         1        75        24  -6.4931509E+03
         1        75        22  -6.4931509E+03
         1        71        11  -2.1643835E+03
         1        51         9  -1.0684932E+03
         1        90        16  -8.6301367E+03
         1       101        67  -6.4931509E+03
         1       101        66  -6.4931509E+03
         1        40        48  -2.1643835E+03
         1        39        44  -2.1643835E+03
         1        40        42  -2.1643835E+03
         1        73        30  -2.7123287E+04
       108         0 # stress period 1
         1         5         7  -6.4931509E+03
         1         5         7  -6.4931509E+03
         1         7         8  -2.1643835E+03
         1         7         8  -2.1643835E+03
         1         8        10  -2.1643835E+03
         1        10         9  -2.1643835E+03
         1         8         5  -2.1643835E+03
         1         9         5  -2.1643835E+03
         1        10         6  -2.1643835E+03
         1        24         8  -2.1643835E+03
         1        15        12  -2.1643835E+03
         1        21        19  -5.0684932E+03
         1        23        22  -5.0684932E+03
         1        26        24  -5.0684932E+03
         1        28        25  -5.0684932E+03
         1        21        24  -5.1780820E+03
         1        22        26  -4.6575342E+03
         1        24        28  -2.1095891E+03
         1        27        28  -3.3972603E+03
         1        19        29  -4.7671230E+03
         1        21        30  -5.0684932E+03
         1        23        32  -5.1780820E+03
         1        25        34  -4.5479453E+03
         1        20        35  -4.9589043E+03
         1        23        38  -4.9589043E+03
         1        24        40  -4.3287671E+03
         1        26        41  -4.0273972E+03
         1        45        27  -3.1780823E+03
         1        47        27  -2.1095891E+03
         1        49        26  -4.2191782E+03
         1        52        26  -4.2191782E+03
         1        57        25  -3.1780823E+03
         1        31        38  -6.4931509E+03
         1        17        48  -1.0684932E+03
         1        15        48  -1.0684932E+03
         1        15        51  -1.0684932E+03
         1        18        50  -1.0684932E+03
         1        16        51  -1.0684932E+03
         1        30        52  -4.0000000E+03
         1        32        54  -4.0000000E+03
         1        30        57  -4.0000000E+03
         1        32        57  -4.0000000E+03
         1        35        58  -4.0000000E+03
         1        40        58  -4.0000000E+03
         1        42        56  -4.0000000E+03
         1        29        60  -4.0000000E+03
         1        32        61  -4.0000000E+03
         1        33        62  -4.0000000E+03
         1        35        63  -4.0000000E+03
         1        37        60  -4.0000000E+03
         1        40        62  -4.0000000E+03
         1        43        59  -4.0000000E+03
         1        45        57  -4.0000000E+03
         1        39        65  -4.0000000E+03
         1        44        64  -4.0000000E+03
         1        46        61  -4.0000000E+03
         1        66        52  -1.1890411E+04
         1        67        50  -1.1890411E+04
         1        69        48  -1.1890411E+04
         1        68        47  -1.1890411E+04
         1        65        39  -1.0794521E+04
         1        64        37  -6.4931509E+03
         1        66        33  -7.5616440E+03
         1        67        30  -6.4931509E+03
         1        66        35  -5.1780820E+03
         1        68        36  -5.7808218E+03
         1        73        38  -1.0794521E+04
         1        76        38  -8.6301367E+03
         1        79        38  -3.2328767E+03
         1        81        40  -5.3972603E+03
         1        84        42  -8.6301367E+03
         1        87        44  -5.3972603E+03
         1        90        45  -8.6301367E+03
         1        91        48  -5.3972603E+03
         1        96        55  -2.1643835E+03
         1        97        31  -1.0794521E+04
         1        96        33  -8.6301367E+03
         1        95        33  -4.4383562E+04
         1        94        35  -8.6301367E+03
         1        93        35  -8.6301367E+03
         1        92        35  -1.1890411E+04
         1        90        34  -8.6301367E+03
         1        86        35  -8.6301367E+03
         1        85        34  -1.0794521E+04
         1        82        32  -1.0794521E+04
         1        79        31  -2.1643835E+03
         1        78        28  -6.4931509E+03
         1        79        25  -6.4931509E+03
         1        81        23  -6.4931509E+03
         1        59        22  -4.3287671E+03
         1        63        25  -8.6301367E+03
         1        66        28  -4.3287671E+03
         1        69        30  -8.6301367E+03
         1        68        29  -9.7260273E+03
         1        68        29  -9.9452051E+03
         1        71        28  -4.3287671E+03
         1        74        26  -9.7260273E+03
         1        75        24  -6.4931509E+03
         1        75        22  -6.4931509E+03
         1        71        11  -2.1643835E+03
         1        51         9  -1.0684932E+03
         1        90        16  -8.6301367E+03
         1       101        67  -6.4931509E+03
         1       101        66  -6.4931509E+03
         1        40        48  -2.1643835E+03
         1        39        44  -2.1643835E+03
         1        40        42  -2.1643835E+03
         1        73        30  -2.7123287E+04
       108         0 # stress period 2
         1         5         7  -6.4931509E+03
         1         5         7  -6.4931509E+03
         1         7         8  -2.1643835E+03
         1         7         8  -2.1643835E+03
         1         8        10  -2.1643835E+03
         1        10         9  -2.1643835E+03
         1         8         5  -2.1643835E+03
         1         9         5  -2.1643835E+03
         1        10         6  -2.1643835E+03
         1        24         8  -2.1643835E+03
         1        15        12  -2.1643835E+03
         1        21        19  -5.0684932E+03
         1        23        22  -5.0684932E+03
         1        26        24  -5.0684932E+03
         1        28        25  -5.0684932E+03
         1        21        24  -5.1780820E+03
         1        22        26  -4.6575342E+03
         1        24        28  -2.1095891E+03
         1        27        28  -3.3972603E+03
         1        19        29  -4.7671230E+03
         1        21        30  -5.0684932E+03
         1        23        32  -5.1780820E+03
         1        25        34  -4.5479453E+03
         1        20        35  -4.9589043E+03
         1        23        38  -4.9589043E+03
         1        24        40  -4.3287671E+03
         1        26        41  -4.0273972E+03
         1        45        27  -3.1780823E+03
         1        47        27  -2.1095891E+03
         1        49        26  -4.2191782E+03
         1        52        26  -4.2191782E+03
         1        57        25  -3.1780823E+03
         1        31        38  -6.4931509E+03
         1        17        48  -1.0684932E+03
         1        15        48  -1.0684932E+03
         1        15        51  -1.0684932E+03
         1        18        50  -1.0684932E+03
         1        16        51  -1.0684932E+03
         1        30        52  -4.0000000E+03
         1        32        54  -4.0000000E+03
         1        30        57  -4.0000000E+03
         1        32        57  -4.0000000E+03
         1        35        58  -4.0000000E+03
         1        40        58  -4.0000000E+03
         1        42        56  -4.0000000E+03
         1        29        60  -4.0000000E+03
         1        32        61  -4.0000000E+03
         1        33        62  -4.0000000E+03
         1        35        63  -4.0000000E+03
         1        37        60  -4.0000000E+03
         1        40        62  -4.0000000E+03
         1        43        59  -4.0000000E+03
         1        45        57  -4.0000000E+03
         1        39        65  -4.0000000E+03
         1        44        64  -4.0000000E+03
         1        46        61  -4.0000000E+03
         1        66        52  -1.1890411E+04
         1        67        50  -1.1890411E+04
         1        69        48  -1.1890411E+04
         1        68        47  -1.1890411E+04
         1        65        39  -1.0794521E+04
         1        64        37  -6.4931509E+03
         1        66        33  -7.5616440E+03
         1        67        30  -6.4931509E+03
         1        66        35  -5.1780820E+03
         1        68        36  -5.7808218E+03
         1        73        38  -1.0794521E+04
         1        76        38  -8.6301367E+03
         1        79        38  -3.2328767E+03
         1        81        40  -5.3972603E+03
         1        84        42  -8.6301367E+03
         1        87        44  -5.3972603E+03
         1        90        45  -8.6301367E+03
         1        91        48  -5.3972603E+03
         1        96        55  -2.1643835E+03
         1        97        31  -1.0794521E+04
         1        96        33  -8.6301367E+03
         1        95        33  -4.4383562E+04
         1        94        35  -8.6301367E+03
         1        93        35  -8.6301367E+03
         1        92        35  -1.1890411E+04
         1        90        34  -8.6301367E+03
         1        86        35  -8.6301367E+03
         1        85        34  -1.0794521E+04
         1        82        32  -1.0794521E+04
         1        79        31  -2.1643835E+03
         1        78        28  -6.4931509E+03
         1        79        25  -6.4931509E+03
         1        81        23  -6.4931509E+03
         1        59        22  -4.3287671E+03
         1        63        25  -8.6301367E+03
         1        66        28  -4.3287671E+03
         1        69        30  -8.6301367E+03
         1        68        29  -9.7260273E+03
         1        68        29  -9.9452051E+03
         1        71        28  -4.3287671E+03
         1        74        26  -9.7260273E+03
         1        75        24  -6.4931509E+03
         1        75        22  -6.4931509E+03
         1        71        11  -2.1643835E+03
         1        51         9  -1.0684932E+03
         1        90        16  -8.6301367E+03
         1       101        67  -6.4931509E+03
         1       101        66  -6.4931509E+03
         1        40        48  -2.1643835E+03
         1        39        44  -2.1643835E+03
         1        40        42  -2.1643835E+03
         1        73        30  -2.7123287E+04
       108         0 # stress period 3
         1         5         7  -6.4931509E+03
         1         5         7  -6.4931509E+03
         1         7         8  -2.1643835E+03
         1         7         8  -2.1643835E+03
         1         8        10  -2.1643835E+03
         1        10         9  -2.1643835E+03
         1         8         5  -2.1643835E+03
         1         9         5  -2.1643835E+03
         1        10         6  -2.1643835E+03
         1        24         8  -2.1643835E+03
         1        15        12  -2.1643835E+03
         1        21        19  -5.0684932E+03
         1        23        22  -5.0684932E+03
         1        26        24  -5.0684932E+03
         1        28        25  -5.0684932E+03
         1        21        24  -5.1780820E+03
         1        22        26  -4.6575342E+03
         1        24        28  -2.1095891E+03
         1        27        28  -3.3972603E+03
         1        19        29  -4.7671230E+03
         1        21        30  -5.0684932E+03
         1        23        32  -5.1780820E+03
         1        25        34  -4.5479453E+03
         1        20        35  -4.9589043E+03
         1        23        38  -4.9589043E+03
         1        24        40  -4.3287671E+03
         1        26        41  -4.0273972E+03
         1        45        27  -3.1780823E+03
         1        47        27  -2.1095891E+03
         1        49        26  -4.2191782E+03
         1        52        26  -4.2191782E+03
         1        57        25  -3.1780823E+03
         1        31        38  -6.4931509E+03
         1        17        48  -1.0684932E+03
         1        15        48  -1.0684932E+03
         1        15        51  -1.0684932E+03
         1        18        50  -1.0684932E+03
         1        16        51  -1.0684932E+03
         1        30        52  -4.0000000E+03
         1        32        54  -4.0000000E+03
         1        30        57  -4.0000000E+03
         1        32        57  -4.0000000E+03
         1        35        58  -4.0000000E+03
         1        40        58  -4.0000000E+03
         1        42        56  -4.0000000E+03
         1        29        60  -4.0000000E+03
         1        32        61  -4.0000000E+03
         1        33        62  -4.0000000E+03
         1        35        63  -4.0000000E+03
         1        37        60  -4.0000000E+03
         1        40        62  -4.0000000E+03
         1        43        59  -4.0000000E+03
         1        45        57  -4.0000000E+03
         1        39        65  -4.0000000E+03
         1        44        64  -4.0000000E+03
         1        46        61  -4.0000000E+03
         1        66        52  -1.1890411E+04
         1        67        50  -1.1890411E+04
         1        69        48  -1.1890411E+04
         1        68        47  -1.1890411E+04
         1        65        39  -1.0794521E+04
         1        64        37  -6.4931509E+03
         1        66        33  -7.5616440E+03
         1        67        30  -6.4931509E+03
         1        66        35  -5.1780820E+03
         1        68        36  -5.7808218E+03
         1        73        38  -1.0794521E+04
         1        76        38  -8.6301367E+03
         1        79        38  -3.2328767E+03
         1        81        40  -5.3972603E+03
         1        84        42  -8.6301367E+03
         1        87        44  -5.3972603E+03
         1        90        45  -8.6301367E+03
         1        91        48  -5.3972603E+03
         1        96        55  -2.1643835E+03
         1        97        31  -1.0794521E+04
         1        96        33  -8.6301367E+03
         1        95        33  -4.4383562E+04
         1        94        35  -8.6301367E+03
         1        93        35  -8.6301367E+03
         1        92        35  -1.1890411E+04
         1        90        34  -8.6301367E+03
         1        86        35  -8.6301367E+03
         1        85        34  -1.0794521E+04
         1        82        32  -1.0794521E+04
         1        79        31  -2.1643835E+03
         1        78        28  -6.4931509E+03
         1        79        25  -6.4931509E+03
         1        81        23  -6.4931509E+03
         1        59        22  -4.3287671E+03
         1        63        25  -8.6301367E+03
         1        66        28  -4.3287671E+03
         1        69        30  -8.6301367E+03
         1        68        29  -9.7260273E+03
         1        68        29  -9.9452051E+03
         1        71        28  -4.3287671E+03
         1        74        26  -9.7260273E+03
         1        75        24  -6.4931509E+03
         1        75        22  -6.4931509E+03
         1        71        11  -2.1643835E+03
         1        51         9  -1.0684932E+03
         1        90        16  -8.6301367E+03
         1       101        67  -6.4931509E+03
         1       101        66  -6.4931509E+03
         1        40        48  -2.1643835E+03
         1        39        44  -2.1643835E+03
         1        40        42  -2.1643835E+03
         1        73        30  -2.7123287E+04
       108         0 # stress period 4
         1         5         7  -6.4931509E+03
         1         5         7  -6.4931509E+03
         1         7         8  -2.1643835E+03
         1         7         8  -2.1643835E+03
         1         8        10  -2.1643835E+03
         1        10         9  -2.1643835E+03
         1         8         5  -2.1643835E+03
         1         9         5  -2.1643835E+03
         1        10         6  -2.1643835E+03
         1        24         8  -2.1643835E+03
         1        15        12  -2.1643835E+03
         1        21        19  -5.0684932E+03
         1        23        22  -5.0684932E+03
         1        26        24  -5.0684932E+03
         1        28        25  -5.0684932E+03
         1        21        24  -5.1780820E+03
         1        22        26  -4.6575342E+03
         1        24        28  -2.1095891E+03
         1        27        28  -3.3972603E+03
         1        19        29  -4.7671230E+03
         1        21        30  -5.0684932E+03
         1        23        32  -5.1780820E+03
         1        25        34  -4.5479453E+03
         1        20        35  -4.9589043E+03
         1        23        38  -4.9589043E+03
         1        24        40  -4.3287671E+03
         1        26        41  -4.0273972E+03
         1        45        27  -3.1780823E+03
         1        47        27  -2.1095891E+03
         1        49        26  -4.2191782E+03
         1        52        26  -4.2191782E+03
         1        57        25  -3.1780823E+03
         1        31        38  -6.4931509E+03
         1        17        48  -1.0684932E+03
         1        15        48  -1.0684932E+03
         1        15        51  -1.0684932E+03
         1        18        50  -1.0684932E+03
         1        16        51  -1.0684932E+03
         1        30        52  -4.0000000E+03
         1        32        54  -4.0000000E+03
         1        30        57  -4.0000000E+03
         1        32        57  -4.0000000E+03
         1        35        58  -4.0000000E+03
         1        40        58  -4.0000000E+03
         1        42        56  -4.0000000E+03
         1        29        60  -4.0000000E+03
         1        32        61  -4.0000000E+03
         1        33        62  -4.0000000E+03
         1        35        63  -4.0000000E+03
         1        37        60  -4.0000000E+03
         1        40        62  -4.0000000E+03
         1        43        59  -4.0000000E+03
         1        45        57  -4.0000000E+03
         1        39        65  -4.0000000E+03
         1        44        64  -4.0000000E+03
         1        46        61  -4.0000000E+03
         1        66        52  -1.1890411E+04
         1        67        50  -1.1890411E+04
         1        69        48  -1.1890411E+04
         1        68        47  -1.1890411E+04
         1        65        39  -1.0794521E+04
         1        64        37  -6.4931509E+03
         1        66        33  -7.5616440E+03
         1        67        30  -6.4931509E+03
         1        66        35  -5.1780820E+03
         1        68        36  -5.7808218E+03
         1        73        38  -1.0794521E+04
         1        76        38  -8.6301367E+03
         1        79        38  -3.2328767E+03
         1        81        40  -5.3972603E+03
         1        84        42  -8.6301367E+03
         1        87        44  -5.3972603E+03
         1        90        45  -8.6301367E+03
         1        91        48  -5.3972603E+03
         1        96        55  -2.1643835E+03
         1        97        31  -1.0794521E+04
         1        96        33  -8.6301367E+03
         1        95        33  -4.4383562E+04
         1        94        35  -8.6301367E+03
         1        93        35  -8.6301367E+03
         1        92        35  -1.1890411E+04
         1        90        34  -8.6301367E+03
         1        86        35  -8.6301367E+03
         1        85        34  -1.0794521E+04
         1        82        32  -1.0794521E+04
         1        79        31  -2.1643835E+03
         1        78        28  -6.4931509E+03
         1        79        25  -6.4931509E+03
         1        81        23  -6.4931509E+03
         1        59        22  -4.3287671E+03
         1        63        25  -8.6301367E+03
         1        66        28  -4.3287671E+03
         1        69        30  -8.6301367E+03
         1        68        29  -9.7260273E+03
         1        68        29  -9.9452051E+03
         1        71        28  -4.3287671E+03
         1        74        26  -9.7260273E+03
         1        75        24  -6.4931509E+03
         1        75        22  -6.4931509E+03
         1        71        11  -2.1643835E+03
         1        51         9  -1.0684932E+03
         1        90        16  -8.6301367E+03
         1       101        67  -6.4931509E+03
         1       101        66  -6.4931509E+03
         1        40        48  -2.1643835E+03
         1        39        44  -2.1643835E+03
         1        40        42  -2.1643835E+03
         1        73        30  -2.7123287E+04
       108         0 # stress period 5
         1         5         7  -6.4931509E+03
         1         5         7  -6.4931509E+03
         1         7         8  -2.1643835E+03
         1         7         8  -2.1643835E+03
         1         8        10  -2.1643835E+03
         1        10         9  -2.1643835E+03
         1         8         5  -2.1643835E+03
         1         9         5  -2.1643835E+03
         1        10         6  -2.1643835E+03
         1        24         8  -2.1643835E+03
         1        15        12  -2.1643835E+03
         1        21        19  -5.0684932E+03
         1        23        22  -5.0684932E+03
         1        26        24  -5.0684932E+03
         1        28        25  -5.0684932E+03
         1        21        24  -5.1780820E+03
         1        22        26  -4.6575342E+03
         1        24        28  -2.1095891E+03
         1        27        28  -3.3972603E+03
         1        19        29  -4.7671230E+03
         1        21        30  -5.0684932E+03
         1        23        32  -5.1780820E+03
         1        25        34  -4.5479453E+03
         1        20        35  -4.9589043E+03
         1        23        38  -4.9589043E+03
         1        24        40  -4.3287671E+03
         1        26        41  -4.0273972E+03
         1        45        27  -3.1780823E+03
         1        47        27  -2.1095891E+03
         1        49        26  -4.2191782E+03
         1        52        26  -4.2191782E+03
         1        57        25  -3.1780823E+03
         1        31        38  -6.4931509E+03
         1        17        48  -1.0684932E+03
         1        15        48  -1.0684932E+03
         1        15        51  -1.0684932E+03
         1        18        50  -1.0684932E+03
         1        16        51  -1.0684932E+03
         1        30        52  -4.0000000E+03
         1        32        54  -4.0000000E+03
         1        30        57  -4.0000000E+03
         1        32        57  -4.0000000E+03
         1        35        58  -4.0000000E+03
         1        40        58  -4.0000000E+03
         1        42        56  -4.0000000E+03
         1        29        60  -4.0000000E+03
         1        32        61  -4.0000000E+03
         1        33        62  -4.0000000E+03
         1        35        63  -4.0000000E+03
         1        37        60  -4.0000000E+03
         1        40        62  -4.0000000E+03
         1        43        59  -4.0000000E+03
         1        45        57  -4.0000000E+03
         1        39        65  -4.0000000E+03
         1        44        64  -4.0000000E+03
         1        46        61  -4.0000000E+03
         1        66        52  -1.1890411E+04
         1        67        50  -1.1890411E+04
         1        69        48  -1.1890411E+04
         1        68        47  -1.1890411E+04
         1        65        39  -1.0794521E+04
         1        64        37  -6.4931509E+03
         1        66        33  -7.5616440E+03
         1        67        30  -6.4931509E+03
         1        66        35  -5.1780820E+03
         1        68        36  -5.7808218E+03
         1        73        38  -1.0794521E+04
         1        76        38  -8.6301367E+03
         1        79        38  -3.2328767E+03
         1        81        40  -5.3972603E+03
         1        84        42  -8.6301367E+03
         1        87        44  -5.3972603E+03
         1        90        45  -8.6301367E+03
         1        91        48  -5.3972603E+03
         1        96        55  -2.1643835E+03
         1        97        31  -1.0794521E+04
         1        96        33  -8.6301367E+03
         1        95        33  -4.4383562E+04
         1        94        35  -8.6301367E+03
         1        93        35  -8.6301367E+03
         1        92        35  -1.1890411E+04
         1        90        34  -8.6301367E+03
         1        86        35  -8.6301367E+03
         1        85        34  -1.0794521E+04
         1        82        32  -1.0794521E+04
         1        79        31  -2.1643835E+03
         1        78        28  -6.4931509E+03
         1        79        25  -6.4931509E+03
         1        81        23  -6.4931509E+03
         1        59        22  -4.3287671E+03
         1        63        25  -8.6301367E+03