[core]
	repositoryformatversion = 0
	filemode = true
	bare = true
	ignorecase = true
	precomposeunicode = true
[remote "origin"]
	url = https://github.com/sfletcher23/Stochastic-MODFLOW
	fetch = +refs/*:refs/*
	mirror = true
